Circuit: * C:\Users\Virgil\Desktop\P1_2023_431C_RONCEA_TEODOR_SERS_N18_LTspice\Simulations\SIMULATOR\Draft2.asc

WARNING: Less than two connections to node N003.  This node is used by E1.
WARNING: Less than two connections to node N004.  This node is used by E3.
Direct Newton iteration for .op point succeeded.
Semiconductor Device Operating Points:
                        --- Diodes ---
Name:      d1
Model: bzx84c6v2l
Id:     -2.89e-04
Vd:     -6.11e+00
Req:     2.45e+02
CAP:     6.89e-11



Date: Tue Jan 30 20:59:20 2024
Total elapsed time: 2.633 seconds.

tnom = 27
temp = 100
method = trap
totiter = 39
traniter = 0
tranpoints = 0
accept = 0
rejected = 0
matrix size = 15
fillins = 0
solver = Normal
Matrix Compiler1: 290 bytes object code size
Matrix Compiler2:      71 opcodes
