Circuit: * C:\Users\Virgil\Desktop\P1_2023_431C_RONCEA_TEODOR_SERS_N18_LTspice\Simulations\SIMULATOR\OPEN_LOOP.asc

Warning: Multiple definitions of model "bc807-25" Type: BJT
Direct Newton iteration for .op point succeeded.

Date: Thu Jan 18 17:40:29 2024
Total elapsed time: 0.074 seconds.

tnom = 27
temp = 25
method = trap
totiter = 45
traniter = 0
tranpoints = 0
accept = 0
rejected = 0
matrix size = 71
fillins = 48
solver = Normal
Matrix Compiler1:     455 opcodes
Matrix Compiler2:     550 opcodes
